version 2
run Sched1-3-20230331-13:40:32-14300
attr configname Sched1
attr datetime 20230331-13:40:32
attr experiment Sched1
attr inifile omnetpp.ini
attr iterationvars $networkLoad=0.9
attr iterationvarsf networkLoad=0.9-
attr measurement $networkLoad=0.9
attr network RadioSch
attr processid 14300
attr repetition 3
attr replication #3
attr resultdir results
attr runnumber 3
attr seedset 3
itervar networkLoad 0.9
param *.usersCount 3
param *.nrOfChannels 10
param *.cycleDuration "1 ms"
param *.networkLoad 0.9
param **.user[*].generator.sendIaTime "0.2 ms"

scalar RadioSch.sink lifetime:mean 92.829612447978
attr interpolationmode none
attr title "lifetime of arrived jobs, mean"
attr unit s
scalar RadioSch.sink lifetime:max 718.15027453654
attr interpolationmode none
attr title "lifetime of arrived jobs, max"
attr unit s

