version 2
run Sched1-1-20230103-15:18:04-19008
attr configname Sched1
attr datetime 20230103-15:18:04
attr experiment Sched1
attr inifile omnetpp.ini
attr iterationvars $networkLoad=0.7
attr iterationvarsf networkLoad=0.7-
attr measurement $networkLoad=0.7
attr network RadioSch
attr processid 19008
attr repetition 1
attr replication #1
attr resultdir results
attr runnumber 1
attr seedset 1
itervar networkLoad 0.7
param *.usersCount 3
param *.nrOfChannels 10
param *.cycleDuration "1 ms"
param *.networkLoad 0.7
param **.user[*].generator.sendIaTime "0.2 ms"

statistic RadioSch.sink "my lifetime user0"
field count 72084
field mean 0.29865157316464
field stddev 0.53456772038975
field min 0
field max 4
field sum 21528
field sqrsum 27028
attr type int
bin	-inf	0
bin	-1	0
bin	0	53027
bin	1	16849
bin	2	2208
statistic RadioSch.sink "my lifetime user1"
field count 61531
field mean 1068.0057857015
field stddev 621.58795300765
field min 0
field max 2125
field sum 65715464
field sqrsum 93957939284
attr type int
bin	-inf	0
bin	-3	0
bin	-2	0
bin	-1	0
bin	0	13
bin	1	13
bin	2	8
bin	3	17
bin	4	39
bin	5	13
bin	6	21
bin	7	31
bin	8	61376
statistic RadioSch.sink "my lifetime user2"
field count 10385
field mean 6201.5435724603
field stddev 3573.6950070646
field min 0
field max 12310
field sum 64403030
field sqrsum 532015334444
attr type int
bin	-inf	0
bin	-51	0
bin	-49	0
bin	-47	0
bin	-45	0
bin	-43	0
bin	-41	0
bin	-39	0
bin	-37	0
bin	-35	0
bin	-33	0
bin	-31	0
bin	-29	0
bin	-27	0
bin	-25	0
bin	-23	0
bin	-21	0
bin	-19	0
bin	-17	0
bin	-15	0
bin	-13	0
bin	-11	0
bin	-9	0
bin	-7	0
bin	-5	0
bin	-3	0
bin	-1	1
bin	1	2
bin	3	5
bin	5	3
bin	7	3
bin	9	3
bin	11	3
bin	13	0
bin	15	0
bin	17	0
bin	19	0
bin	21	3
bin	23	4
bin	25	0
bin	27	3
bin	29	1
bin	31	0
bin	33	2
bin	35	2
bin	37	5
bin	39	2
bin	41	2
bin	43	4
bin	45	6
bin	47	5
bin	49	1
bin	51	3
bin	53	1
bin	55	0
bin	57	4
bin	59	0
bin	61	0
bin	63	0
bin	65	0
bin	67	2
bin	69	1
bin	71	2
bin	73	5
bin	75	0
bin	77	0
bin	79	5
bin	81	4
bin	83	1
bin	85	0
bin	87	1
bin	89	3
bin	91	0
bin	93	6
bin	95	0
bin	97	0
bin	99	0
bin	101	5
bin	103	0
bin	105	0
bin	107	2
bin	109	0
bin	111	2
bin	113	2
bin	115	2
bin	117	2
bin	119	2
bin	121	6
bin	123	7
bin	125	2
bin	127	1
bin	129	0
bin	131	5
bin	133	5
bin	135	4
bin	137	3
bin	139	2
bin	141	4
bin	143	0
bin	145	0
bin	147	0
bin	149	0
bin	151	3
bin	153	10228
scalar RadioSch.sink lifetime:mean 904.24932160291
attr interpolationmode none
attr title "lifetime of arrived jobs, mean"
attr unit s
scalar RadioSch.sink lifetime:max 12310.350829439
attr interpolationmode none
attr title "lifetime of arrived jobs, max"
attr unit s

