version 2
run Sched1-4-20230103-15:20:36-8708
attr configname Sched1
attr datetime 20230103-15:20:36
attr experiment Sched1
attr inifile omnetpp.ini
attr iterationvars $networkLoad=0.95
attr iterationvarsf networkLoad=0.95-
attr measurement $networkLoad=0.95
attr network RadioSch
attr processid 8708
attr repetition 4
attr replication #4
attr resultdir results
attr runnumber 4
attr seedset 4
itervar networkLoad 0.95
param *.usersCount 3
param *.nrOfChannels 10
param *.cycleDuration "1 ms"
param *.networkLoad 0.95
param **.user[*].generator.sendIaTime "0.2 ms"

statistic RadioSch.sink "my lifetime user0"
field count 72176
field mean 0.3042978275327
field stddev 0.53335838950076
field min 0
field max 3
field sum 21963
field sqrsum 27215
attr type int
bin	-inf	0
bin	-1	0
bin	0	52653
bin	1	17269
bin	2	2254
statistic RadioSch.sink "my lifetime user1"
field count 61471
field mean 1053.329586309
field stddev 621.56857104258
field min 0
field max 2141
field sum 64749223
field sqrsum 91951052395
attr type int
bin	-inf	0
bin	-3	0
bin	-2	0
bin	-1	0
bin	0	21
bin	1	12
bin	2	14
bin	3	14
bin	4	47
bin	5	61
bin	6	36
bin	7	29
bin	8	61
bin	9	61176
statistic RadioSch.sink "my lifetime user2"
field count 10353
field mean 6066.6743938955
field stddev 3551.3824549496
field min 0
field max 12328
field sum 62808280
field sqrsum 511600093118
attr type int
bin	-inf	0
bin	-49	0
bin	-48	0
bin	-47	0
bin	-46	0
bin	-45	0
bin	-44	0
bin	-43	0
bin	-42	0
bin	-41	0
bin	-40	0
bin	-39	0
bin	-38	0
bin	-37	0
bin	-36	0
bin	-35	0
bin	-34	0
bin	-33	0
bin	-32	0
bin	-31	0
bin	-30	0
bin	-29	0
bin	-28	0
bin	-27	0
bin	-26	0
bin	-25	0
bin	-24	0
bin	-23	0
bin	-22	0
bin	-21	0
bin	-20	0
bin	-19	0
bin	-18	0
bin	-17	0
bin	-16	0
bin	-15	0
bin	-14	0
bin	-13	0
bin	-12	0
bin	-11	0
bin	-10	0
bin	-9	0
bin	-8	0
bin	-7	0
bin	-6	0
bin	-5	0
bin	-4	0
bin	-3	0
bin	-2	0
bin	-1	0
bin	0	5
bin	1	3
bin	2	3
bin	3	2
bin	4	0
bin	5	0
bin	6	0
bin	7	0
bin	8	0
bin	9	0
bin	10	2
bin	11	0
bin	12	0
bin	13	0
bin	14	0
bin	15	0
bin	16	1
bin	17	2
bin	18	0
bin	19	0
bin	20	0
bin	21	3
bin	22	2
bin	23	0
bin	24	0
bin	25	0
bin	26	0
bin	27	0
bin	28	0
bin	29	3
bin	30	1
bin	31	3
bin	32	0
bin	33	2
bin	34	0
bin	35	2
bin	36	0
bin	37	0
bin	38	2
bin	39	4
bin	40	0
bin	41	0
bin	42	1
bin	43	0
bin	44	4
bin	45	1
bin	46	1
bin	47	0
bin	48	0
bin	49	1
bin	50	2
bin	51	0
bin	52	0
bin	53	2
bin	54	0
bin	55	1
bin	56	2
bin	57	4
bin	58	3
bin	59	3
bin	60	0
bin	61	2
bin	62	3
bin	63	3
bin	64	4
bin	65	0
bin	66	5
bin	67	2
bin	68	0
bin	69	0
bin	70	0
bin	71	0
bin	72	0
bin	73	0
bin	74	0
bin	75	0
bin	76	0
bin	77	0
bin	78	0
bin	79	0
bin	80	0
bin	81	0
bin	82	0
bin	83	0
bin	84	0
bin	85	1
bin	86	4
bin	87	1
bin	88	0
bin	89	1
bin	90	0
bin	91	0
bin	92	0
bin	93	0
bin	94	2
bin	95	3
bin	96	2
bin	97	4
bin	98	0
bin	99	0
bin	100	0
bin	101	2
bin	102	1
bin	103	0
bin	104	0
bin	105	0
bin	106	0
bin	107	0
bin	108	0
bin	109	1
bin	110	0
bin	111	0
bin	112	0
bin	113	1
bin	114	2
bin	115	1
bin	116	0
bin	117	3
bin	118	0
bin	119	0
bin	120	0
bin	121	0
bin	122	0
bin	123	2
bin	124	2
bin	125	0
bin	126	0
bin	127	2
bin	128	4
bin	129	2
bin	130	1
bin	131	0
bin	132	8
bin	133	0
bin	134	1
bin	135	4
bin	136	3
bin	137	0
bin	138	0
bin	139	0
bin	140	0
bin	141	0
bin	142	0
bin	143	1
bin	144	1
bin	145	1
bin	146	10208
scalar RadioSch.sink lifetime:mean 886.46816481691
attr interpolationmode none
attr title "lifetime of arrived jobs, mean"
attr unit s
scalar RadioSch.sink lifetime:max 12328.251103523
attr interpolationmode none
attr title "lifetime of arrived jobs, max"
attr unit s

