version 2
run Sched1-0-20230103-15:17:30-18392
attr configname Sched1
attr datetime 20230103-15:17:30
attr experiment Sched1
attr inifile omnetpp.ini
attr iterationvars $networkLoad=0.5
attr iterationvarsf networkLoad=0.5-
attr measurement $networkLoad=0.5
attr network RadioSch
attr processid 18392
attr repetition 0
attr replication #0
attr resultdir results
attr runnumber 0
attr seedset 0
itervar networkLoad 0.5
param *.usersCount 3
param *.nrOfChannels 10
param *.cycleDuration "1 ms"
param *.networkLoad 0.5
param **.user[*].generator.sendIaTime "0.2 ms"

statistic RadioSch.sink "my lifetime user0"
field count 72153
field mean 0.31477554640833
field stddev 0.55365233139876
field min 0
field max 4
field sum 22712
field sqrsum 29266
attr type int
bin	-inf	0
bin	-1	0
bin	0	52353
bin	1	17225
bin	2	2575
statistic RadioSch.sink "my lifetime user1"
field count 61454
field mean 1089.1229212094
field stddev 620.60018520203
field min 0
field max 2116
field sum 66930960
field sqrsum 96564333156
attr type int
bin	-inf	0
bin	-3	0
bin	-2	0
bin	-1	0
bin	0	15
bin	1	20
bin	2	28
bin	3	48
bin	4	24
bin	5	13
bin	6	21
bin	7	36
bin	8	61249
statistic RadioSch.sink "my lifetime user2"
field count 10393
field mean 6246.6172423747
field stddev 3617.2377634695
field min 2
field max 12355
field sum 64921093
field sqrsum 541510397645
attr type int
bin	-inf	0
bin	-51	0
bin	-49	0
bin	-47	0
bin	-45	0
bin	-43	0
bin	-41	0
bin	-39	0
bin	-37	0
bin	-35	0
bin	-33	0
bin	-31	0
bin	-29	0
bin	-27	0
bin	-25	0
bin	-23	0
bin	-21	0
bin	-19	0
bin	-17	0
bin	-15	0
bin	-13	0
bin	-11	0
bin	-9	0
bin	-7	0
bin	-5	0
bin	-3	0
bin	-1	0
bin	1	4
bin	3	4
bin	5	1
bin	7	4
bin	9	2
bin	11	3
bin	13	2
bin	15	0
bin	17	5
bin	19	4
bin	21	6
bin	23	3
bin	25	2
bin	27	0
bin	29	6
bin	31	0
bin	33	0
bin	35	0
bin	37	1
bin	39	0
bin	41	4
bin	43	0
bin	45	1
bin	47	1
bin	49	4
bin	51	4
bin	53	2
bin	55	2
bin	57	0
bin	59	0
bin	61	0
bin	63	4
bin	65	0
bin	67	8
bin	69	2
bin	71	3
bin	73	0
bin	75	0
bin	77	2
bin	79	0
bin	81	0
bin	83	1
bin	85	3
bin	87	2
bin	89	0
bin	91	2
bin	93	0
bin	95	0
bin	97	0
bin	99	0
bin	101	1
bin	103	1
bin	105	3
bin	107	4
bin	109	4
bin	111	2
bin	113	1
bin	115	0
bin	117	0
bin	119	0
bin	121	0
bin	123	0
bin	125	0
bin	127	4
bin	129	2
bin	131	4
bin	133	5
bin	135	7
bin	137	6
bin	139	2
bin	141	2
bin	143	7
bin	145	0
bin	147	6
bin	149	3
bin	151	3
bin	153	6
bin	155	1
bin	157	4
bin	159	3
bin	161	10220
scalar RadioSch.sink lifetime:mean 916.29641666678
attr interpolationmode none
attr title "lifetime of arrived jobs, mean"
attr unit s
scalar RadioSch.sink lifetime:max 12355.702987673
attr interpolationmode none
attr title "lifetime of arrived jobs, max"
attr unit s

