version 2
run Sched1-5-20230103-12:15:48-11464
attr configname Sched1
attr datetime 20230103-12:15:48
attr experiment Sched1
attr inifile omnetpp.ini
attr iterationvars $networkLoad=1
attr iterationvarsf networkLoad=1-
attr measurement $networkLoad=1
attr network RadioSch
attr processid 11464
attr repetition 5
attr replication #5
attr resultdir results
attr runnumber 5
attr seedset 5
itervar networkLoad 1
param *.usersCount 3
param *.nrOfChannels 10
param *.cycleDuration "1 ms"
param *.networkLoad 1
param **.user[*].generator.sendIaTime "0.2 ms"

statistic RadioSch.sink "my lifetime user0"
field count 49547
field mean 0.0039154741962177
field stddev 0.062451757186309
field min 0
field max 1
field sum 194
field sqrsum 194
attr type int
bin	-inf	0
bin	-1	0
bin	0	49353
bin	1	194
bin	2	0
statistic RadioSch.sink "my lifetime user1"
field count 43298
field mean 665.71485980877
field stddev 395.31341165598
field min 0
field max 1375
field sum 28824122
field sqrsum 25954785144
attr type int
bin	-inf	0
bin	-1	0
bin	0	50
bin	1	67
bin	2	43
bin	3	43138
statistic RadioSch.sink "my lifetime user2"
field count 7155
field mean 4265.3232704403
field stddev 2480.2793831465
field min 4
field max 8554
field sum 30518388
field sqrsum 174180666258
attr type int
bin	-inf	0
bin	-40	0
bin	-39	0
bin	-38	0
bin	-37	0
bin	-36	0
bin	-35	0
bin	-34	0
bin	-33	0
bin	-32	0
bin	-31	0
bin	-30	0
bin	-29	0
bin	-28	0
bin	-27	0
bin	-26	0
bin	-25	0
bin	-24	0
bin	-23	0
bin	-22	0
bin	-21	0
bin	-20	0
bin	-19	0
bin	-18	0
bin	-17	0
bin	-16	0
bin	-15	0
bin	-14	0
bin	-13	0
bin	-12	0
bin	-11	0
bin	-10	0
bin	-9	0
bin	-8	0
bin	-7	0
bin	-6	0
bin	-5	0
bin	-4	0
bin	-3	0
bin	-2	0
bin	-1	0
bin	0	0
bin	1	0
bin	2	0
bin	3	0
bin	4	1
bin	5	3
bin	6	3
bin	7	1
bin	8	1
bin	9	2
bin	10	2
bin	11	2
bin	12	0
bin	13	7
bin	14	0
bin	15	0
bin	16	1
bin	17	3
bin	18	2
bin	19	0
bin	20	0
bin	21	0
bin	22	0
bin	23	0
bin	24	3
bin	25	0
bin	26	1
bin	27	1
bin	28	0
bin	29	2
bin	30	2
bin	31	2
bin	32	0
bin	33	0
bin	34	2
bin	35	3
bin	36	2
bin	37	2
bin	38	0
bin	39	2
bin	40	0
bin	41	1
bin	42	2
bin	43	2
bin	44	2
bin	45	2
bin	46	0
bin	47	2
bin	48	0
bin	49	0
bin	50	2
bin	51	3
bin	52	1
bin	53	0
bin	54	0
bin	55	0
bin	56	1
bin	57	0
bin	58	0
bin	59	0
bin	60	0
bin	61	3
bin	62	2
bin	63	0
bin	64	0
bin	65	0
bin	66	2
bin	67	2
bin	68	0
bin	69	1
bin	70	2
bin	71	0
bin	72	0
bin	73	0
bin	74	0
bin	75	0
bin	76	0
bin	77	3
bin	78	0
bin	79	1
bin	80	5
bin	81	1
bin	82	1
bin	83	2
bin	84	0
bin	85	2
bin	86	1
bin	87	0
bin	88	0
bin	89	1
bin	90	0
bin	91	2
bin	92	4
bin	93	0
bin	94	4
bin	95	1
bin	96	0
bin	97	0
bin	98	2
bin	99	1
bin	100	0
bin	101	0
bin	102	0
bin	103	0
bin	104	0
bin	105	0
bin	106	2
bin	107	0
bin	108	0
bin	109	0
bin	110	0
bin	111	0
bin	112	1
bin	113	1
bin	114	2
bin	115	0
bin	116	2
bin	117	0
bin	118	2
bin	119	0
bin	120	0
bin	121	1
bin	122	5
bin	123	0
bin	124	2
bin	125	1
bin	126	1
bin	127	0
bin	128	0
bin	129	1
bin	130	2
bin	131	2
bin	132	3
bin	133	3
bin	134	1
bin	135	2
bin	136	7010
scalar RadioSch.sink lifetime:mean 593.92712294777
attr interpolationmode none
attr title "lifetime of arrived jobs, mean"
attr unit s
scalar RadioSch.sink lifetime:max 8554.8252070611
attr interpolationmode none
attr title "lifetime of arrived jobs, max"
attr unit s

